Version 4
SHEET 1 2136 1268
WIRE -96 -624 -144 -624
WIRE 704 -624 -96 -624
WIRE 704 -512 704 -624
WIRE 1536 -448 1360 -448
WIRE 528 -432 480 -432
WIRE 624 -432 608 -432
WIRE 656 -432 624 -432
WIRE 224 -416 144 -416
WIRE 1360 -384 1360 -448
WIRE -144 -352 -144 -624
WIRE 480 -352 480 -432
WIRE 480 -352 448 -352
WIRE 224 -336 224 -416
WIRE 272 -336 224 -336
WIRE 704 -320 704 -416
WIRE 704 -320 448 -320
WIRE 752 -320 704 -320
WIRE 864 -320 752 -320
WIRE 1008 -320 944 -320
WIRE 1168 -320 1040 -320
WIRE 1280 -320 1168 -320
WIRE 272 -304 224 -304
WIRE 496 -288 448 -288
WIRE 1280 -272 1280 -320
WIRE 1360 -272 1360 -304
WIRE 1744 -272 1360 -272
WIRE 1840 -272 1744 -272
WIRE 1888 -272 1840 -272
WIRE 224 -256 224 -304
WIRE 272 -256 224 -256
WIRE 464 -256 448 -256
WIRE 1024 -256 1024 -304
WIRE 1056 -256 1024 -256
WIRE 1088 -256 1056 -256
WIRE 1360 -224 1360 -272
WIRE 704 -208 704 -320
WIRE 224 -192 224 -256
WIRE 1744 -176 1744 -272
WIRE 1888 -176 1888 -272
WIRE 496 -128 496 -288
WIRE 512 -128 496 -128
WIRE 624 -128 592 -128
WIRE 656 -128 624 -128
WIRE 1168 -128 1072 -128
WIRE 1280 -128 1280 -192
WIRE 1280 -128 1168 -128
WIRE 1072 -96 1072 -128
WIRE 1360 -80 1360 -144
WIRE 1536 -80 1536 -448
WIRE 464 16 464 -256
WIRE 704 16 704 -112
WIRE 704 16 464 16
WIRE 1072 16 1072 -32
WIRE 1072 16 704 16
WIRE 1360 16 1360 -16
WIRE 1360 16 1072 16
WIRE 1536 16 1536 -16
WIRE 1536 16 1360 16
WIRE 1744 16 1744 -112
WIRE 1744 16 1536 16
WIRE 1888 16 1888 -96
WIRE 1888 16 1744 16
WIRE -144 80 -144 -272
WIRE 704 80 704 16
WIRE 1056 176 864 176
WIRE 1136 176 1056 176
WIRE 864 224 864 176
WIRE 864 368 864 304
FLAG -144 80 0
FLAG 704 80 0
FLAG 224 -192 0
FLAG 1840 -272 out
FLAG 624 -432 g1
FLAG 624 -128 g2
FLAG 752 -320 mid
FLAG 864 368 0
FLAG 1056 176 im
FLAG 1056 -256 ilr
FLAG 1168 -320 pri+
FLAG 1168 -128 pri-
FLAG -96 -624 in
SYMBOL nmos 656 -512 R0
SYMATTR InstName M1
SYMATTR Value R6020PNJ
SYMBOL nmos 656 -208 R0
SYMATTR InstName M2
SYMATTR Value R6020PNJ
SYMBOL voltage -144 -368 R0
WINDOW 123 0 0 Left 0
WINDOW 39 0 0 Left 0
SYMATTR InstName V1
SYMATTR Value 405
SYMBOL MyDriverHB 384 -304 R0
WINDOW 38 -36 -98 Bottom 2
WINDOW 3 -62 107 Bottom 2
WINDOW 123 -50 135 Bottom 2
SYMATTR InstName U1
SYMBOL res 624 -448 R90
WINDOW 0 0 56 VBottom 2
WINDOW 3 32 56 VTop 2
SYMATTR InstName R1
SYMATTR Value 10
SYMBOL res 608 -144 R90
WINDOW 0 0 56 VBottom 2
WINDOW 3 32 56 VTop 2
SYMATTR InstName R2
SYMATTR Value 10
SYMBOL ind 848 -304 R270
WINDOW 0 32 56 VTop 2
WINDOW 3 5 56 VBottom 2
SYMATTR InstName Lr
SYMATTR Value 60µ
SYMBOL ind2 1264 -176 M180
WINDOW 0 -31 76 Left 2
WINDOW 3 -50 36 Left 2
SYMATTR InstName L1
SYMATTR Value {L1}
SYMBOL ind2 1376 -288 R180
WINDOW 0 -36 87 Left 2
WINDOW 3 -115 32 Left 2
SYMATTR InstName L3
SYMATTR Value {L1/n**2}
SYMBOL ind2 1376 -128 R180
WINDOW 0 -35 79 Left 2
WINDOW 3 -122 36 Left 2
SYMATTR InstName L2
SYMATTR Value {L1/n**2}
SYMBOL cap 1056 -96 R0
SYMATTR InstName Cr
SYMATTR Value 27.3n
SYMBOL schottky 1376 -16 R180
WINDOW 0 24 64 Left 2
WINDOW 3 24 2 Left 2
SYMATTR InstName D1
SYMATTR Value MBRB2545CT
SYMATTR Description Diode
SYMATTR Type diode
SYMBOL cap 1728 -176 R0
SYMATTR InstName Co
SYMATTR Value 330µ
SYMBOL res 1872 -192 R0
SYMATTR InstName Rload
SYMATTR Value 0.48
SYMBOL schottky 1552 -16 R180
WINDOW 0 24 64 Left 2
WINDOW 3 -153 -3 Left 2
SYMATTR InstName D2
SYMATTR Value MBRB2545CT
SYMATTR Description Diode
SYMATTR Type diode
SYMBOL Control\\clk 112 -416 R0
WINDOW 3 -14 74 Bottom 2
WINDOW 123 -21 107 Bottom 2
WINDOW 39 -31 144 Bottom 2
SYMATTR Value tdelay=0 Vhigh=10
SYMATTR Value2 SR=1e8 ton={1/fs/2}
SYMATTR SpiceLine f={fs}
SYMATTR InstName U2
SYMBOL Misc\\Epoly 864 208 R0
SYMATTR InstName E1
SYMATTR Value value = {I(Lr) -(I(L3)+I(L2))/n}
SYMBOL Control\\isense 1024 -320 R0
SYMATTR InstName U3
TEXT 1144 -456 Left 2 !.param n=16\n.param L1=210u
TEXT 1152 -392 Left 2 !kt L1 L2 L3 1
TEXT 1128 -584 Left 2 !.tran 0 {tend} {tend - 5/fs} uic
TEXT 8 -552 Left 2 !.param fs=120k
TEXT 1128 -624 Left 2 !.param tend=50/fs
TEXT 1656 -616 Left 2 !.measure Iin avg -I(V1)\n.measure Vin avg V(in)\n.measure Vout avg V(out)\n.measure Iout avg I(Rload)\n.measure Pin param Vin*Iin\n.measure Pout param Vout*Iout\n.measure Eff param Pout*100/Pin
